Version 4
SHEET 1 4532 2936
WIRE 1696 -320 1552 -320
WIRE 416 -304 272 -304
WIRE 1552 -288 1552 -320
WIRE 272 -272 272 -304
WIRE 416 -272 416 -304
WIRE 3504 -256 3376 -256
WIRE 1696 -224 1696 -240
WIRE 3376 -224 3376 -256
WIRE 3504 -224 3504 -256
WIRE 416 -176 416 -192
WIRE 1600 -112 1552 -112
WIRE 1696 -112 1696 -144
WIRE 1696 -112 1664 -112
WIRE 3376 -112 3376 -144
WIRE 320 -80 272 -80
WIRE 416 -80 416 -96
WIRE 416 -80 384 -80
WIRE 1552 -32 1552 -112
WIRE 1584 -32 1552 -32
WIRE 1696 -32 1696 -112
WIRE 1696 -32 1664 -32
WIRE 1552 -16 1552 -32
WIRE 272 0 272 -80
WIRE 304 0 272 0
WIRE 416 0 416 -80
WIRE 416 0 384 0
WIRE 272 16 272 0
WIRE 3136 16 3088 16
WIRE 3376 16 3376 -48
WIRE 3376 16 3328 16
WIRE 416 32 416 0
WIRE 496 32 416 32
WIRE 688 32 560 32
WIRE 800 32 688 32
WIRE 896 32 880 32
WIRE 1696 32 1696 -32
WIRE 1776 32 1696 32
WIRE 1968 32 1840 32
WIRE 2080 32 1968 32
WIRE 2176 32 2160 32
WIRE 416 48 416 32
WIRE 688 48 688 32
WIRE 1696 48 1696 32
WIRE 1968 48 1968 32
WIRE -48 96 -272 96
WIRE 16 96 -48 96
WIRE 112 96 96 96
WIRE 144 96 112 96
WIRE 272 96 208 96
WIRE 352 96 272 96
WIRE 896 96 896 32
WIRE 1232 96 1008 96
WIRE 1296 96 1232 96
WIRE 1392 96 1376 96
WIRE 1424 96 1392 96
WIRE 1552 96 1552 64
WIRE 1552 96 1488 96
WIRE 1632 96 1552 96
WIRE 2176 96 2176 32
WIRE -272 112 -272 96
WIRE 1008 112 1008 96
WIRE 3088 112 3088 16
WIRE 3200 112 3088 112
WIRE 3376 112 3376 16
WIRE 3376 112 3280 112
WIRE -48 128 -48 96
WIRE 1232 128 1232 96
WIRE 3088 128 3088 112
WIRE 112 144 112 96
WIRE 1392 144 1392 96
WIRE 3376 160 3376 112
WIRE 3424 160 3376 160
WIRE 3728 160 3616 160
WIRE 3744 160 3728 160
WIRE 3856 160 3744 160
WIRE 3952 160 3936 160
WIRE 3376 192 3376 160
WIRE 3728 208 3728 160
WIRE -272 224 -272 192
WIRE -48 224 -48 192
WIRE 1008 224 1008 192
WIRE 1232 224 1232 192
WIRE 3952 224 3952 160
WIRE 112 240 112 224
WIRE 416 240 416 144
WIRE 688 240 688 112
WIRE 1696 240 1696 144
WIRE 1968 240 1968 112
WIRE 2528 240 2304 240
WIRE 2608 240 2528 240
WIRE 2736 240 2688 240
WIRE 2848 240 2736 240
WIRE 3088 240 3088 208
WIRE 3088 240 3040 240
WIRE 3312 240 3088 240
WIRE 1392 256 1392 224
WIRE 2304 256 2304 240
WIRE 2736 256 2736 240
WIRE 2528 272 2528 240
WIRE 2304 368 2304 336
WIRE 2528 368 2528 336
WIRE 2736 368 2736 336
WIRE 3376 384 3376 288
WIRE 3728 432 3728 400
FLAG 416 240 0
FLAG 688 240 0
FLAG 272 -192 0
FLAG 688 32 OUT_SANTA_CRUZ_IDEAL
FLAG 112 240 0
FLAG 896 96 0
FLAG -272 224 0
FLAG -48 224 0
FLAG 1696 240 0
FLAG 1968 240 0
FLAG 1552 -208 0
FLAG 1968 32 OUT_CHUBUT_IDEAL
FLAG 1392 256 0
FLAG 2176 96 0
FLAG 1008 224 0
FLAG 1232 224 0
FLAG 2304 368 0
FLAG 2528 368 0
FLAG 3504 -144 0
FLAG 2736 368 0
FLAG 3376 384 0
FLAG 3744 160 OUT_CHUBUT_REAL
FLAG 3952 224 0
FLAG 3728 432 0
SYMBOL res 400 -288 R0
SYMATTR InstName R1
SYMATTR Value 63.7
SYMBOL res 400 -16 R90
WINDOW 0 0 56 VBottom 2
WINDOW 3 32 56 VTop 2
SYMATTR InstName R2
SYMATTR Value 3k
SYMBOL res 288 112 R180
WINDOW 0 36 76 Left 2
WINDOW 3 36 40 Left 2
SYMATTR InstName R3
SYMATTR Value 470
SYMBOL cap 384 -96 R90
WINDOW 0 0 32 VBottom 2
WINDOW 3 32 32 VTop 2
SYMATTR InstName C1
SYMATTR Value 3.3n
SYMBOL cap 560 16 R90
WINDOW 0 0 32 VBottom 2
WINDOW 3 32 32 VTop 2
SYMATTR InstName C2
SYMATTR Value 3.3n
SYMBOL cap 704 112 R180
WINDOW 0 24 56 Left 2
WINDOW 3 24 8 Left 2
SYMATTR InstName C3
SYMATTR Value 3p
SYMBOL cap 144 112 R270
WINDOW 0 32 32 VTop 2
WINDOW 3 0 32 VBottom 2
SYMATTR InstName C4
SYMATTR Value 3.3n
SYMBOL voltage 272 -288 R0
WINDOW 123 0 0 Left 0
WINDOW 39 0 0 Left 0
SYMATTR InstName V2
SYMATTR Value 2.25
SYMBOL npn 352 48 R0
SYMATTR InstName Q1
SYMATTR Value M_BFR840L3RHESD
SYMBOL ind 400 -192 R0
SYMATTR InstName L1
SYMATTR Value 47µ
SYMBOL res 96 128 R0
SYMATTR InstName R4
SYMATTR Value 1Meg
SYMBOL res 896 16 R90
WINDOW 0 0 56 VBottom 2
WINDOW 3 32 56 VTop 2
SYMATTR InstName R5
SYMATTR Value 50
SYMBOL current -272 112 R0
WINDOW 123 24 28 Left 2
WINDOW 39 0 0 Left 0
SYMATTR Value2 AC {I_SENSOR}
SYMATTR InstName I1
SYMATTR Value 0
SYMBOL res 112 80 R90
WINDOW 0 0 56 VBottom 2
WINDOW 3 32 56 VTop 2
SYMATTR InstName R11
SYMATTR Value 1e-3
SYMBOL res 1680 -336 R0
SYMATTR InstName R6
SYMATTR Value 75
SYMBOL res 1568 80 R180
WINDOW 0 36 76 Left 2
WINDOW 3 36 40 Left 2
SYMATTR InstName R8
SYMATTR Value 500
SYMBOL cap 1840 16 R90
WINDOW 0 0 32 VBottom 2
WINDOW 3 32 32 VTop 2
SYMATTR InstName C6
SYMATTR Value 3.3n
SYMBOL cap 1984 112 R180
WINDOW 0 24 56 Left 2
WINDOW 3 24 8 Left 2
SYMATTR InstName C7
SYMATTR Value 3p
SYMBOL cap 1424 112 R270
WINDOW 0 32 32 VTop 2
WINDOW 3 0 32 VBottom 2
SYMATTR InstName C8
SYMATTR Value 3.3n
SYMBOL voltage 1552 -304 R0
WINDOW 123 0 0 Left 0
WINDOW 39 0 0 Left 0
SYMATTR InstName V1
SYMATTR Value 2.25
SYMBOL npn 1632 48 R0
SYMATTR InstName Q2
SYMATTR Value M_BFP840FESD
SYMBOL res 1376 128 R0
SYMATTR InstName R9
SYMATTR Value 500
SYMBOL res 2176 16 R90
WINDOW 0 0 56 VBottom 2
WINDOW 3 32 56 VTop 2
SYMATTR InstName R10
SYMATTR Value 50
SYMBOL current 1008 112 R0
WINDOW 123 24 28 Left 2
WINDOW 39 0 0 Left 0
SYMATTR Value2 AC {I_SENSOR}
SYMATTR InstName I2
SYMATTR Value 0
SYMBOL res 1392 80 R90
WINDOW 0 0 56 VBottom 2
WINDOW 3 32 56 VTop 2
SYMATTR InstName R12
SYMATTR Value 1e-3
SYMBOL cap -64 128 R0
SYMATTR InstName C9
SYMATTR Value {C_SENSOR}
SYMBOL cap 1216 128 R0
SYMATTR InstName C10
SYMATTR Value {C_SENSOR}
SYMBOL current 2304 256 R0
WINDOW 123 24 28 Left 2
WINDOW 39 0 0 Left 0
SYMATTR Value2 AC {I_SENSOR}
SYMATTR InstName I3
SYMATTR Value 0
SYMBOL cap 2512 272 R0
SYMATTR InstName C11
SYMATTR Value {C_SENSOR}
SYMBOL res 2704 224 R90
WINDOW 0 0 56 VBottom 2
WINDOW 3 32 56 VTop 2
SYMATTR InstName R13
SYMATTR Value 1e-3
SYMBOL npn 3312 192 R0
SYMATTR InstName Q3
SYMATTR Value M_BFP840FESD
SYMBOL res 3360 -240 R0
SYMATTR InstName R14
SYMATTR Value 75
SYMBOL voltage 3504 -240 R0
WINDOW 123 0 0 Left 0
WINDOW 39 0 0 Left 0
SYMATTR InstName V3
SYMATTR Value 2.25
SYMBOL res 2720 240 R0
SYMATTR InstName R15
SYMATTR Value 500
SYMBOL res 3952 144 R90
WINDOW 0 0 56 VBottom 2
WINDOW 3 32 56 VTop 2
SYMATTR InstName R16
SYMATTR Value 50
SYMBOL res 3104 224 R180
WINDOW 0 36 76 Left 2
WINDOW 3 36 40 Left 2
SYMATTR InstName R18
SYMATTR Value 500
SYMBOL GRM1555C1H332GE01 2944 240 R0
SYMATTR InstName U1
SYMBOL GRM1555C1H332GE01 3520 160 R0
SYMATTR InstName U2
SYMBOL ind 1680 -240 R0
SYMATTR InstName L2
SYMATTR Value 47µ
SYMBOL res 1680 -48 R90
WINDOW 0 0 56 VBottom 2
WINDOW 3 32 56 VTop 2
SYMATTR InstName R7
SYMATTR Value 3k
SYMBOL cap 1664 -128 R90
WINDOW 0 0 32 VBottom 2
WINDOW 3 32 32 VTop 2
SYMATTR InstName C5
SYMATTR Value 3.3n
SYMBOL res 3296 96 R90
WINDOW 0 0 56 VBottom 2
WINDOW 3 32 56 VTop 2
SYMATTR InstName R17
SYMATTR Value 3k
SYMBOL GRM1555C1H332GE01 3232 16 R0
SYMATTR InstName U4
SYMBOL AutoGenerated\\GJM1555C1H3R0WB01 3728 304 R90
SYMATTR InstName U5
SYMBOL AutoGenerated\\LBR2012T470 3376 -80 R90
SYMATTR InstName U3
TEXT -152 384 Left 2 !.ac dec 111 111k 11G
TEXT -160 456 Left 2 !.MODEL          M_BFR840L3RHESD NPN(\n\n+               TNOM = 25\n\n+               IS              =               2.429E-016\n\n+               BF              =               765.7\n\n+               NF              =               1.012\n\n+               VAF             =               375.1\n\n+               IKF             =               0.0819\n\n+               ISE             =               8.827E-014\n\n+               NE              =               2.8\n\n+               BR              =               194\n\n+               NR              =               0.998\n\n+               VAR             =               1.596\n\n+               IKR             =               0.015\n\n+               ISC             =               1.165E-015\n\n+               NC              =               2\n\n+               RB              =               7.53378\n\n+               IRB             =               0\n\n+               RBM             =               2.1\n\n+               RE              =               0.4405\n\n+               RC              =               7.246\n\n+               XTB             =               -2.276\n\n+               EG              =               1.11\n\n+               XTI             =               -1.233\n\n+               CJE             =               2.23E-014\n\n+               VJE             =               0.9214\n\n+               MJE             =               0.5\n\n+               TF              =               1.1E-012\n\n+               XTF             =               5.582\n\n+               VTF             =               0.6828\n\n+               ITF             =               0.4491\n\n+               PTF             =               0.0214\n\n+               CJC             =               6.6E-015\n\n+               VJC             =               0.7723\n\n+               MJC             =               1.005\n\n+               XCJC            =               0.4894\n\n+               TR              =               1E-010\n\n+               CJS             =               1.147E-013\n\n+               MJS             =               1.108\n\n+   VJS =   0.6112\n\n+               FC              =               0.578\n\n+               KF              =               1.65E-011\n\n+               AF              =               1.53)\n\n***************************************************************\n\n*\n\n.ENDS BFR840L3RHESD
TEXT -152 424 Left 2 ;Model file taken from https://www.infineon.com/cms/en/product/rf-wireless-control/rf-transistor/ultra-low-noise-sigec-transistors-for-use-up-to-12-ghz/bfr840l3rhesd/
TEXT 912 456 Left 2 !.MODEL          M_BFP840FESD    NPN(\n \n+               TNOM = 25\n \n+               IS              =               2.009E-016\n \n+               BF              =               946.1\n \n+               NF              =               1\n \n+               VAF             =               300\n \n+               IKF             =               0.1993\n \n+               ISE             =               6.26E-015\n \n+               NE              =               2\n \n+               BR              =               108\n \n+               NR              =               1\n \n+               VAR             =               1.288\n \n+               IKR             =               0.0007328\n \n+               ISC             =               8.126E-016\n \n+               NC              =               2\n \n+               RB              =               17\n \n+               IRB             =               0\n \n+               RBM             =               1\n \n+               RE              =               0.05\n \n+               RC              =               4.145\n \n+               XTB             =               -2.276\n \n+               EG              =               1.11\n \n+               XTI             =               0\n \n+               CJE             =               1.3E-013\n \n+               VJE             =               0.6\n \n+               MJE             =               0.5\n \n+               TF              =               7.494E-013\n \n+               XTF             =               17.49\n \n+               VTF             =               0.5295\n \n+               ITF             =               1.025\n \n+               PTF             =               4.667\n \n+               CJC             =               1.1E-014\n \n+               VJC             =               0.67\n \n+               MJC             =               0.88\n \n+               XCJC            =               0.4894\n \n+               TR              =               1.793E-009\n \n+               CJS             =               3E-013\n \n+               MJS             =               0.5\n \n+         VJS       =         0.7\n \n+               FC              =               0.352\n \n+               KF              =               6.4E-012\n \n+               AF              =               1.44)\n \n***************************************************************\n \n*\n \n.ENDS BFP840FESD
TEXT -336 -312 Left 2 ;Santa Cruz board (ideal components)
TEXT 944 -312 Left 2 ;Chubut board (ideal components)
TEXT -152 344 Left 2 !.param I_SENSOR=75m C_SENSOR=4p
TEXT 2360 -168 Left 2 ;Chubut board ("real" components)
RECTANGLE Normal -352 -336 928 304 2
RECTANGLE Normal 928 -336 2208 304 2
RECTANGLE Normal 4000 496 2224 -336 2
