*----------------------------------------------------------------------
* SPICE Model generated by Murata Manufacturing Co., Ltd.
* Copyright(C) Murata Manufacturing Co., Ltd.
* Description :1005M(0402)/C0G/3pF/50V
* Murata P/N :GJM1555C1H3R0WB01
* Property : C = 3[pF]
* Data Generated on Jan 10, 2017
*----------------------------------------------------------------------
* Applicable Conditions:
*   Frequency Range = 100MHz-8.5GHz
*   Temperature = 25 degC
*   DC Bias Voltage = 0V
*   Small Signal Operation
*----------------------------------------------------------------------
.SUBCKT GJM1555C1H3R0WB01 port1 port2
C1 port1 11 3.00e-12
L2 11 12 2.88e-10
R3 12 13 1.35e-1
C4 13 14 4.39e-11
L4 13 14 6.93e-12
R4 13 14 6.32e-1
C5 14 port2 6.06e-12
L5 14 port2 4.24e-11
R5 14 port2 1.00e+5
R100 port1 11 1.00e+10
.ENDS GJM1555C1H3R0WB01