*----------------------------------------------------------------------
* SPICE Model generated by Murata Manufacturing Co., Ltd.
* Copyright(C) Murata Manufacturing Co., Ltd.
* Description :1005M(0402)/C0G/3300pF/50V
* Murata P/N :GRM1555C1H332GE01
* Property : C = 3300[pF]
* Data Generated on Mar 5, 2019
*----------------------------------------------------------------------
* Applicable Conditions:
*   Frequency Range = 1MHz-6GHz
*   Temperature = 25 degC
*   DC Bias Voltage = 0V
*   Small Signal Operation
*----------------------------------------------------------------------
.SUBCKT GRM1555C1H332GE01 port1 port2
C1 port1 11 3.25e-9
L2 11 12 2.10e-10
R3 12 13 2.60e-3
L4 13 14 4.87e-11
R4 13 14 2.55e-1
L5 14 15 5.28e-11
R5 14 15 1.25e-2
L6 15 16 2.40e-10
R6 15 16 4.00e-3
L7 16 17 3.62e-11
R7 16 17 2.06e-3
C8 17 18 2.75e-8
L8 17 18 8.49e-12
R8 17 18 1.52e-1
C9 18 19 6.34e-9
L9 18 19 1.62e-11
R9 18 19 2.68e-1
C10 19 20 6.54e-9
L10 19 20 5.16e-12
R10 19 20 7.49e-2
C11 20 port2 9.63e-12
L11 20 port2 2.56e-11
R11 20 port2 8.55
R100 port1 11 1.00e+10
.ENDS GRM1555C1H332GE01